   Input file: /data/input.pqi
  Output file: /data/output.pqo
Database file: /data/T_H.dat

------------------
Reading data base.
------------------

	SOLUTION_MASTER_SPECIES
	SOLUTION_SPECIES
	PHASES
	EXCHANGE_MASTER_SPECIES
	EXCHANGE_SPECIES
	SURFACE_MASTER_SPECIES
	SURFACE_SPECIES
	SURFACE_MASTER_SPECIES
	SURFACE_SPECIES
	END
------------------------------------
Reading input data for simulation 1.
------------------------------------

	TITLE Experimenting with PHREEQC
	SOLUTION
		Units mg/L
		pH 7.56
		temp 13.63
		Ca 56.32
		Mg 7.04
		K 1.63
		Cl 19.805
		Na 6.94
		Al 0.00013
		F 0.011
		S(6) 25.37 as SO4
		Si 6.5
		N(5) 22.265 as NO3
		Alkalinity 159 as HCO3
	END
-----
TITLE
-----

 Experimenting with PHREEQC

-------------------------------------------
Beginning of initial solution calculations.
-------------------------------------------

Initial solution 1.	

-----------------------------Solution composition------------------------------

	Elements           Molality       Moles

	Al                4.820e-09   4.820e-09
	Alkalinity        2.607e-03   2.607e-03
	Ca                1.406e-03   1.406e-03
	Cl                5.588e-04   5.588e-04
	F                 5.792e-07   5.792e-07
	K                 4.170e-05   4.170e-05
	Mg                2.897e-04   2.897e-04
	N(5)              3.592e-04   3.592e-04
	Na                3.020e-04   3.020e-04
	S(6)              2.642e-04   2.642e-04
	Si                1.082e-04   1.082e-04

----------------------------Description of solution----------------------------

                                       pH  =   7.560    
                                       pe  =   4.000    
                        Activity of water  =   1.000
                 Ionic strength (mol/kgw)  =   5.636e-03
                       Mass of water (kg)  =   1.000e+00
                    Total carbon (mol/kg)  =   2.772e-03
                       Total CO2 (mol/kg)  =   2.772e-03
                         Temperature (°C)  =  13.63
                  Electrical balance (eq)  =  -3.192e-04
 Percent error, 100*(Cat-|An|)/(Cat+|An|)  =  -4.22
                               Iterations  =   7
                                  Total H  = 1.110155e+02
                                  Total O  = 5.551693e+01

----------------------------Distribution of species----------------------------

                                               Log       Log       Log    mole V
   Species          Molality    Activity  Molality  Activity     Gamma    cm³/mol

   OH-             1.576e-07   1.457e-07    -6.802    -6.837    -0.034     (0)  
   H+              2.957e-08   2.754e-08    -7.529    -7.560    -0.031      0.00
   H2O             5.551e+01   9.999e-01     1.744    -0.000     0.000     18.03
Al            4.820e-09
   Al(OH)4-        4.712e-09   4.356e-09    -8.327    -8.361    -0.034     (0)  
   Al(OH)3         7.141e-11   7.150e-11   -10.146   -10.146     0.001     (0)  
   Al(OH)2+        3.573e-11   3.303e-11   -10.447   -10.481    -0.034     (0)  
   AlOH+2          4.602e-13   3.361e-13   -12.337   -12.474    -0.136     (0)  
   AlF+2           1.335e-14   9.748e-15   -13.875   -14.011    -0.136     (0)  
   Al+3            4.033e-15   1.989e-15   -14.394   -14.701    -0.307     (0)  
   AlF2+           2.614e-15   2.417e-15   -14.583   -14.617    -0.034     (0)  
   AlSO4+          9.786e-16   9.046e-16   -15.009   -15.044    -0.034     (0)  
   AlF3            1.580e-17   1.582e-17   -16.801   -16.801     0.001     (0)  
   Al(SO4)2-       4.911e-18   4.540e-18   -17.309   -17.343    -0.034     (0)  
   AlF4-           3.574e-21   3.304e-21   -20.447   -20.481    -0.034     (0)  
   AlHSO4+2        2.785e-24   2.034e-24   -23.555   -23.692    -0.136     (0)  
C(4)          2.772e-03
   HCO3-           2.556e-03   2.368e-03    -2.592    -2.626    -0.033     (0)  
   CO2             1.754e-04   1.756e-04    -3.756    -3.755     0.001     (0)  
   CaHCO3+         2.592e-05   2.396e-05    -4.586    -4.620    -0.034     (0)  
   MgHCO3+         5.920e-06   5.473e-06    -5.228    -5.262    -0.034     (0)  
   CaCO3           4.299e-06   4.304e-06    -5.367    -5.366     0.001     (0)  
   CO3-2           4.198e-06   3.092e-06    -5.377    -5.510    -0.133     (0)  
   MgCO3           5.071e-07   5.078e-07    -6.295    -6.294     0.001     (0)  
   NaHCO3          3.707e-07   3.712e-07    -6.431    -6.430     0.001     (0)  
   NaCO3-          9.566e-09   8.843e-09    -8.019    -8.053    -0.034     (0)  
Ca            1.406e-03
   Ca+2            1.346e-03   9.908e-04    -2.871    -3.004    -0.133     (0)  
   CaSO4           2.964e-05   2.968e-05    -4.528    -4.528     0.001     (0)  
   CaHCO3+         2.592e-05   2.396e-05    -4.586    -4.620    -0.034     (0)  
   CaCO3           4.299e-06   4.304e-06    -5.367    -5.366     0.001     (0)  
   CaOH+           6.457e-09   5.969e-09    -8.190    -8.224    -0.034     (0)  
   CaF+            3.728e-09   3.446e-09    -8.429    -8.463    -0.034     (0)  
   CaHSO4+         4.569e-12   4.224e-12   -11.340   -11.374    -0.034     (0)  
Cl            5.588e-04
   Cl-             5.588e-04   5.161e-04    -3.253    -3.287    -0.035     (0)  
F             5.792e-07
   F-              5.691e-07   5.261e-07    -6.245    -6.279    -0.034     (0)  
   MgF+            6.220e-09   5.750e-09    -8.206    -8.240    -0.034     (0)  
   CaF+            3.728e-09   3.446e-09    -8.429    -8.463    -0.034     (0)  
   NaF             8.429e-11   8.440e-11   -10.074   -10.074     0.001     (0)  
   HF              1.778e-11   1.780e-11   -10.750   -10.750     0.001     (0)  
   AlF+2           1.335e-14   9.748e-15   -13.875   -14.011    -0.136     (0)  
   AlF2+           2.614e-15   2.417e-15   -14.583   -14.617    -0.034     (0)  
   HF2-            3.500e-17   3.236e-17   -16.456   -16.490    -0.034     (0)  
   AlF3            1.580e-17   1.582e-17   -16.801   -16.801     0.001     (0)  
   AlF4-           3.574e-21   3.304e-21   -20.447   -20.481    -0.034     (0)  
   H2F2            1.229e-21   1.231e-21   -20.910   -20.910     0.001     (0)  
   SiF6-2          0.000e+00   0.000e+00   -41.091   -41.228    -0.136     (0)  
H(0)          1.103e-26
   H2              5.516e-27   5.524e-27   -26.258   -26.258     0.001     (0)  
K             4.170e-05
   K+              4.166e-05   3.847e-05    -4.380    -4.415    -0.035     (0)  
   KSO4-           4.249e-08   3.928e-08    -7.372    -7.406    -0.034     (0)  
Mg            2.897e-04
   Mg+2            2.773e-04   2.049e-04    -3.557    -3.688    -0.131     (0)  
   MgSO4           5.932e-06   5.940e-06    -5.227    -5.226     0.001     (0)  
   MgHCO3+         5.920e-06   5.473e-06    -5.228    -5.262    -0.034     (0)  
   MgCO3           5.071e-07   5.078e-07    -6.295    -6.294     0.001     (0)  
   MgOH+           1.005e-08   9.289e-09    -7.998    -8.032    -0.034     (0)  
   MgF+            6.220e-09   5.750e-09    -8.206    -8.240    -0.034     (0)  
N(5)          3.592e-04
   NO3-            3.592e-04   3.320e-04    -3.445    -3.479    -0.034     (0)  
Na            3.020e-04
   Na+             3.013e-04   2.788e-04    -3.521    -3.555    -0.034     (0)  
   NaHCO3          3.707e-07   3.712e-07    -6.431    -6.430     0.001     (0)  
   NaSO4-          2.351e-07   2.173e-07    -6.629    -6.663    -0.034     (0)  
   NaCO3-          9.566e-09   8.843e-09    -8.019    -8.053    -0.034     (0)  
   NaF             8.429e-11   8.440e-11   -10.074   -10.074     0.001     (0)  
O(0)          0.000e+00
   O2              0.000e+00   0.000e+00   -43.758   -43.757     0.001     (0)  
S(6)          2.642e-04
   SO4-2           2.283e-04   1.677e-04    -3.641    -3.776    -0.134     (0)  
   CaSO4           2.964e-05   2.968e-05    -4.528    -4.528     0.001     (0)  
   MgSO4           5.932e-06   5.940e-06    -5.227    -5.226     0.001     (0)  
   NaSO4-          2.351e-07   2.173e-07    -6.629    -6.663    -0.034     (0)  
   KSO4-           4.249e-08   3.928e-08    -7.372    -7.406    -0.034     (0)  
   HSO4-           3.835e-10   3.546e-10    -9.416    -9.450    -0.034     (0)  
   CaHSO4+         4.569e-12   4.224e-12   -11.340   -11.374    -0.034     (0)  
   AlSO4+          9.786e-16   9.046e-16   -15.009   -15.044    -0.034     (0)  
   Al(SO4)2-       4.911e-18   4.540e-18   -17.309   -17.343    -0.034     (0)  
   AlHSO4+2        2.785e-24   2.034e-24   -23.555   -23.692    -0.136     (0)  
Si            1.082e-04
   H4SiO4          1.078e-04   1.079e-04    -3.967    -3.967     0.001     (0)  
   H3SiO4-         4.081e-07   3.773e-07    -6.389    -6.423    -0.034     (0)  
   H2SiO4-2        5.775e-13   4.218e-13   -12.238   -12.375    -0.136     (0)  
   SiF6-2          0.000e+00   0.000e+00   -41.091   -41.228    -0.136     (0)  

------------------------------Saturation indices-------------------------------

  Phase               SI** log IAP   log K(286 K,   1 atm)

  Adularia         -3.21    -24.68  -21.47  KAlSi3O8
  Al(OH)3(a)       -3.59      7.98   11.57  Al(OH)3
  Albite           -5.06    -23.82  -18.75  NaAlSi3O8
  AlumK           -21.29    -26.67   -5.38  KAl(SO4)2:12H2O
  Alunite         -10.77    -10.71    0.06  KAl3(SO4)2(OH)6
  Analcime         -6.62    -19.85  -13.23  NaAlSi2O6:H2O
  Anhydrite        -2.45     -6.78   -4.33  CaSO4
  Anorthite        -7.61    -27.66  -20.05  CaAl2Si2O8
  Aragonite        -0.24     -8.51   -8.27  CaCO3
  Artinite         -8.20      2.23   10.44  MgCO3:Mg(OH)2:3H2O
  Basaluminite     -9.68     13.02   22.70  Al4(OH)10SO4
  Beidellite       -3.21    -50.24  -47.03  (NaKMg0.5)0.11Al2.33Si3.67O10(OH)2
  Boehmite         -1.42      7.98    9.40  AlOOH
  Brucite          -6.20     11.43   17.63  Mg(OH)2
  Calcite          -0.09     -8.51   -8.42  CaCO3
  Chalcedony       -0.28     -3.97   -3.69  SiO2
  Chlorite14A     -11.57     61.21   72.78  Mg5Al2Si3O10(OH)8
  Chlorite7A      -15.05     61.21   76.26  Mg5Al2Si3O10(OH)8
  Chrysotile       -7.30     26.36   33.66  Mg3Si2O5(OH)4
  Clinoenstatite   -4.46      7.46   11.92  MgSiO3
  CO2(g)           -2.43     -3.76   -1.32  CO2
  Cristobalite     -0.22     -3.97   -3.75  SiO2
  Diaspore          0.38      7.98    7.60  AlOOH
  Diopside         -5.22     15.61   20.83  CaMgSi2O6
  Dolomite         -0.90    -17.71  -16.82  CaMg(CO3)2
  Dolomite(d)      -1.49    -17.71  -16.22  CaMg(CO3)2
  Epsomite         -5.24     -7.46   -2.22  MgSO4:7H2O
  Fluorite         -4.82    -15.56  -10.74  CaF2
  Forsterite      -10.82     18.90   29.72  Mg2SiO4
  Gibbsite         -0.79      7.98    8.77  Al(OH)3
  Gypsum           -2.19     -6.78   -4.59  CaSO4:2H2O
  H2(g)           -23.06     21.88   44.94  H2
  H2O(g)           -1.81     -0.00    1.81  H2O
  Halite           -8.40     -6.84    1.56  NaCl
  Halloysite       -5.63      8.02   13.66  Al2Si2O5(OH)4
  Huntite          -6.89    -36.11  -29.22  CaMg3(CO3)4
  Hydromagnesite  -18.12    -25.36   -7.24  Mg5(CO3)4(OH)2:4H2O
  Illite           -3.90    -45.76  -41.86  K0.6Mg0.25Al2.3Si3.5O10(OH)2
  Jurbanite        -7.69    -10.92   -3.23  AlOHSO4
  Kaolinite        -0.44      8.02    8.46  Al2Si2O5(OH)4
  Kmica             0.75     15.18   14.43  KAl3Si3O10(OH)2
  Laumontite       -3.48    -35.59  -32.11  CaAl2Si4O12:4H2O
  Leonhardite       1.19    -71.19  -72.37  Ca2Al4Si8O24:7H2O
  Magadiite        -9.46    -23.76  -14.30  NaSi7O13(OH)3:3H2O
  Magnesite        -1.35     -9.20   -7.85  MgCO3
  Mirabilite       -9.22    -10.89   -1.67  Na2SO4:10H2O
  Montmorillonite-Ca  -2.93    -49.65  -46.72  Ca0.165Al2.33Si3.67O10(OH)2
  Nahcolite        -5.52     -6.18   -0.66  NaHCO3
  Natron          -10.85    -12.62   -1.77  Na2CO3:10H2O
  Nesquehonite     -3.75     -9.20   -5.45  MgCO3:3H2O
  O2(g)           -40.96    -43.76   -2.80  O2
  Phillipsite      -4.37    -24.25  -19.87  Na0.5K0.5AlSi3O8:H2O
  Phlogopite      -11.01     33.52   44.53  KMg3AlSi3O10(OH)2
  Portlandite     -11.58     12.12   23.70  Ca(OH)2
  Prehnite         -7.51    -19.51  -12.00  Ca2Al2Si3O10(OH)2
  Pyrophyllite      0.61    -47.71  -48.31  Al2Si4O10(OH)2
  Quartz            0.19     -3.97   -4.15  SiO2
  Sepiolite        -5.11     10.96   16.07  Mg2Si3O7.5OH:3H2O
  Sepiolite(d)     -7.70     10.96   18.66  Mg2Si3O7.5OH:3H2O
  Silicagel        -0.82     -3.97   -3.15  SiO2
  SiO2(a)          -1.16     -3.97   -2.81  SiO2
  Talc             -4.32     18.43   22.75  Mg3Si4O10(OH)2
  Thenardite      -10.72    -10.89   -0.16  Na2SO4
  Thermonatrite   -12.83    -12.62    0.21  Na2CO3:H2O
  Tremolite        -9.73     49.66   59.39  Ca2Mg5Si8O22(OH)2
  Trona           -18.53    -18.80   -0.27  NaHCO3:Na2CO3:2H2O
  Wairakite        -8.12    -35.59  -27.47  CaAl2Si4O12:2H2O

**For a gas, SI = log10(fugacity). Fugacity = pressure * phi / 1 atm.
  For ideal gases, phi = 1.

------------------
End of simulation.
------------------

------------------------------------
Reading input data for simulation 2.
------------------------------------

	REACTION_TEMPERATURE 1
	13.63 0
	25 100
------------------
End of simulation.
------------------

------------------------------------
Reading input data for simulation 3.
------------------------------------

---------------------------------
End of Run after 0.03672 Seconds.
---------------------------------

